---- qbsp / ericw-tools v0.18.1 ----
Input file: test2-compile.map
Output file: test2.bsp

---- LoadMapFile ----
*** WARNING 06: No info_player_deathmatch entities in level
           60 faces
           10 brushes
            4 entities
            7 unique texnames
           36 texinfo

Opened WAD: /home/skye/github/qengine/gamedata/maps/textures.wad
Processing hull 0...
---- Brush_LoadEntity ----
           10 brushes
           24 planes
---- CSGFaces ----
           60 brushfaces
           57 csgfaces
           61 mergedfaces
---- SolidBSP ----
           75 split nodes
           19 solid leafs
           52 empty leafs
            5 water leafs
            0 detail leafs
            0 detail illusionary leafs
            0 detail fence leafs
            0 illusionary visblocker leafs
          139 leaffaces
          139 nodefaces
---- Portalize ----
           57 vis leafs
           57 vis clusters
          136 vis portals
---- FillOutside ----
           42 outleafs
---- MergeAll ----
           36 mergefaces
---- SolidBSP ----
           26 split nodes
           16 solid leafs
           10 empty leafs
            1 water leafs
            0 detail leafs
            0 detail illusionary leafs
            0 detail fence leafs
            0 illusionary visblocker leafs
           63 leaffaces
           48 nodefaces
---- Portalize ----
           11 vis leafs
           11 vis clusters
           26 vis portals
---- Tjunc ----
           65 world edges
          176 edge points
           54 edges added by tjunctions
            0 faces added by tjunctions
---- MakeFaceEdges ----
---- GrowRegions ----
Processing hull 1...
Processing hull 2...
*** WARNING 19: No entities in empty space -- no filling performed (hull 2)
---- WriteBSPFile ----
Wrote test2.bsp
           58 planes             1160
           67 vertexes            804
           26 nodes               624
           14 texinfo             560
           48 faces               960
          133 clipnodes          1064
           12 leafs               336
           63 marksurfaces        126
          246 surfedges           984
          124 edges               496
            7 textures            312
              lightdata             0
              visdata               0
              entdata             533

0.006 seconds elapsed
Peak memory usage: 609842 (0.6M)
