---- qbsp / ericw-tools 2.0.0-alpha8 ----

--- Options Summary ---

Input file: C:\Users\skye waddell\Desktop\qengine2\maps\test\test-compile.map
Output file: C:\Users\skye waddell\Desktop\qengine2\maps\test\test.bsp

INFO: using built-in palette.
WARNING: No wad or _wad key exists in the worldmodel
     1 entities
     2 unique textures
     4 texinfos
    12 unique planes

INFO: world extents calculated to 840 units
    1 brushes
    6 sides

            0 texture frames added
WARNING: unable to find texture skip
WARNING: unable to find texture __TB_empty
Processing hull 0...
    1 SOLID brushes
    1 brushes total
    6 visible sides
INFO: calculating BSP for 1 brushes with 6 sides
    1 brushes
    6 non-visible faces
    6 nodes
    6 non-visible nodes
    6 expensive split nodes
    7 leaves
    6 EMPTY leafs
    1 SOLID leafs
    7 leafs total
    7 max tree height
    4 avg tree height
    36 tree portals
WARNING: No entities in empty space -- no filling performed (hull 0)
    36 tree portals
    6 sides visible
    6 makefaces
     6 player-occupiable leaves
     6 clusters of leaves
    12 vis portals
    6 EMPTY leafs
    1 SOLID leafs
    7 leafs total
    7 max tree height
    4 avg tree height
Processing hull 1...
WARNING: No entities in empty space -- no filling performed (hull 1)
Processing hull 2...
WARNING: No entities in empty space -- no filling performed (hull 2)
Writing test.bsp as Quake BSP bsp29
Wrote test.bsp

count   lump name    byte size 
      1 models               64
     17 planes              340
      1 vertexes             12
      6 nodes               144
      0 texinfos              0
      0 faces                 0
     12 clipnodes            96
      7 leafs               196
      0 marksurfaces          0
      1 edges                 4
      0 surfedges             0
      2 textures             12
        lightdata             0
        visdata               0
        entdata              49

0.019s seconds elapsed


